/*--------------------------------*- C++ -*----------------------------------*\
  =========                 |
  \\      /  F ield         | OpenFOAM: The Open Source CFD Toolbox
   \\    /   O peration     | Website:  https://openfoam.org
    \\  /    A nd           | Version:  12
     \\/     M anipulation  |
\*---------------------------------------------------------------------------*/
FoamFile
{
    format      binary;
    class       polyBoundaryMesh;
    location    "constant/polyMesh";
    object      boundary;
}
// * * * * * * * * * * * * * * * * * * * * * * * * * * * * * * * * * * * * * //

7
(
    minX
    {
        type            patch;
        nFaces          0;
        startFace       11200;
    }
    maxX
    {
        type            patch;
        nFaces          400;
        startFace       11200;
    }
    minY
    {
        type            patch;
        nFaces          200;
        startFace       11600;
    }
    maxY
    {
        type            patch;
        nFaces          200;
        startFace       11800;
    }
    minZ
    {
        type            patch;
        nFaces          200;
        startFace       12000;
    }
    maxZ
    {
        type            patch;
        nFaces          200;
        startFace       12200;
    }
    procBoundary1to0
    {
        type            processor;
        inGroups        List<word> 1(processor);
        nFaces          400;
        startFace       12400;
        matchTolerance  0.0001;
        myProcNo        1;
        neighbProcNo    0;
    }
)

// ************************************************************************* //
