/*--------------------------------*- C++ -*----------------------------------*\
  =========                 |
  \\      /  F ield         | OpenFOAM: The Open Source CFD Toolbox
   \\    /   O peration     | Website:  https://openfoam.org
    \\  /    A nd           | Version:  12
     \\/     M anipulation  |
\*---------------------------------------------------------------------------*/
FoamFile
{
    format      binary;
    class       polyBoundaryMesh;
    location    "1/polyMesh";
    object      boundary;
}
// * * * * * * * * * * * * * * * * * * * * * * * * * * * * * * * * * * * * * //

8
(
    minX
    {
        type            patch;
        nFaces          400;
        startFace       154542;
    }
    maxX
    {
        type            patch;
        nFaces          400;
        startFace       154942;
    }
    minY
    {
        type            patch;
        nFaces          400;
        startFace       155342;
    }
    maxY
    {
        type            patch;
        nFaces          400;
        startFace       155742;
    }
    minZ
    {
        type            patch;
        nFaces          400;
        startFace       156142;
    }
    maxZ
    {
        type            patch;
        nFaces          400;
        startFace       156542;
    }
    wolf_wall
    {
        type            wall;
        inGroups        List<word> 1(wall);
        nFaces          12724;
        startFace       156942;
    }
    procBoundary0to1
    {
        type            processor;
        inGroups        List<word> 1(processor);
        nFaces          2514;
        startFace       169666;
        matchTolerance  0.0001;
        myProcNo        0;
        neighbProcNo    1;
    }
)

// ************************************************************************* //
