/*--------------------------------*- C++ -*----------------------------------*\
  =========                 |
  \\      /  F ield         | OpenFOAM: The Open Source CFD Toolbox
   \\    /   O peration     | Website:  https://openfoam.org
    \\  /    A nd           | Version:  12
     \\/     M anipulation  |
\*---------------------------------------------------------------------------*/
FoamFile
{
    format      binary;
    class       polyBoundaryMesh;
    location    "3/polyMesh";
    object      boundary;
}
// * * * * * * * * * * * * * * * * * * * * * * * * * * * * * * * * * * * * * //

8
(
    minX
    {
        type            patch;
        nFaces          400;
        startFace       245830;
    }
    maxX
    {
        type            patch;
        nFaces          400;
        startFace       246230;
    }
    minY
    {
        type            patch;
        nFaces          400;
        startFace       246630;
    }
    maxY
    {
        type            patch;
        nFaces          400;
        startFace       247030;
    }
    minZ
    {
        type            patch;
        nFaces          400;
        startFace       247430;
    }
    maxZ
    {
        type            patch;
        nFaces          400;
        startFace       247830;
    }
    wolf_wall
    {
        type            wall;
        inGroups        List<word> 1(wall);
        nFaces          9313;
        startFace       248230;
    }
    procBoundary0to1
    {
        type            processor;
        inGroups        List<word> 1(processor);
        nFaces          2470;
        startFace       257543;
        matchTolerance  0.0001;
        myProcNo        0;
        neighbProcNo    1;
    }
)

// ************************************************************************* //
