/*--------------------------------*- C++ -*----------------------------------*\
  =========                 |
  \\      /  F ield         | OpenFOAM: The Open Source CFD Toolbox
   \\    /   O peration     | Website:  https://openfoam.org
    \\  /    A nd           | Version:  12
     \\/     M anipulation  |
\*---------------------------------------------------------------------------*/
FoamFile
{
    format      binary;
    class       polyBoundaryMesh;
    location    "constant/polyMesh";
    object      boundary;
}
// * * * * * * * * * * * * * * * * * * * * * * * * * * * * * * * * * * * * * //

8
(
    minX
    {
        type            patch;
        nFaces          400;
        startFace       495039;
    }
    maxX
    {
        type            patch;
        nFaces          400;
        startFace       495439;
    }
    minY
    {
        type            patch;
        nFaces          400;
        startFace       495839;
    }
    maxY
    {
        type            patch;
        nFaces          400;
        startFace       496239;
    }
    minZ
    {
        type            patch;
        nFaces          400;
        startFace       496639;
    }
    maxZ
    {
        type            patch;
        nFaces          400;
        startFace       497039;
    }
    wolf_wall
    {
        type            wall;
        inGroups        List<word> 1(wall);
        nFaces          20083;
        startFace       497439;
    }
    sphere
    {
        type            wall;
        inGroups        List<word> 1(wall);
        nFaces          240;
        startFace       517522;
    }
)

// ************************************************************************* //
