/*--------------------------------*- C++ -*----------------------------------*\
  =========                 |
  \\      /  F ield         | OpenFOAM: The Open Source CFD Toolbox
   \\    /   O peration     | Website:  https://openfoam.org
    \\  /    A nd           | Version:  12
     \\/     M anipulation  |
\*---------------------------------------------------------------------------*/
FoamFile
{
    format      binary;
    class       polyBoundaryMesh;
    location    "1/polyMesh";
    object      boundary;
}
// * * * * * * * * * * * * * * * * * * * * * * * * * * * * * * * * * * * * * //

7
(
    minX
    {
        type            patch;
        nFaces          400;
        startFace       309556;
    }
    maxX
    {
        type            patch;
        nFaces          400;
        startFace       309956;
    }
    minY
    {
        type            patch;
        nFaces          400;
        startFace       310356;
    }
    maxY
    {
        type            patch;
        nFaces          400;
        startFace       310756;
    }
    minZ
    {
        type            patch;
        nFaces          400;
        startFace       311156;
    }
    maxZ
    {
        type            patch;
        nFaces          400;
        startFace       311556;
    }
    wolf_wall
    {
        type            wall;
        inGroups        List<word> 1(wall);
        nFaces          28659;
        startFace       311956;
    }
)

// ************************************************************************* //
