/*--------------------------------*- C++ -*----------------------------------*\
  =========                 |
  \\      /  F ield         | OpenFOAM: The Open Source CFD Toolbox
   \\    /   O peration     | Website:  https://openfoam.org
    \\  /    A nd           | Version:  12
     \\/     M anipulation  |
\*---------------------------------------------------------------------------*/
FoamFile
{
    format      binary;
    class       polyBoundaryMesh;
    location    "2/polyMesh";
    object      boundary;
}
// * * * * * * * * * * * * * * * * * * * * * * * * * * * * * * * * * * * * * //

8
(
    minX
    {
        type            patch;
        nFaces          0;
        startFace       152500;
    }
    maxX
    {
        type            patch;
        nFaces          0;
        startFace       152500;
    }
    minY
    {
        type            patch;
        nFaces          0;
        startFace       152500;
    }
    maxY
    {
        type            patch;
        nFaces          0;
        startFace       152500;
    }
    minZ
    {
        type            patch;
        nFaces          0;
        startFace       152500;
    }
    maxZ
    {
        type            patch;
        nFaces          0;
        startFace       152500;
    }
    wolf_wall
    {
        type            wall;
        inGroups        List<word> 1(wall);
        nFaces          11017;
        startFace       152500;
    }
    procBoundary1to0
    {
        type            processor;
        inGroups        List<word> 1(processor);
        nFaces          2514;
        startFace       163517;
        matchTolerance  0.0001;
        myProcNo        1;
        neighbProcNo    0;
    }
)

// ************************************************************************* //
