/*--------------------------------*- C++ -*----------------------------------*\
  =========                 |
  \\      /  F ield         | OpenFOAM: The Open Source CFD Toolbox
   \\    /   O peration     | Website:  https://openfoam.org
    \\  /    A nd           | Version:  12
     \\/     M anipulation  |
\*---------------------------------------------------------------------------*/
FoamFile
{
    format      binary;
    class       polyBoundaryMesh;
    location    "3/polyMesh";
    object      boundary;
}
// * * * * * * * * * * * * * * * * * * * * * * * * * * * * * * * * * * * * * //

7
(
    minX
    {
        type            patch;
        nFaces          400;
        startFace       492959;
    }
    maxX
    {
        type            patch;
        nFaces          400;
        startFace       493359;
    }
    minY
    {
        type            patch;
        nFaces          400;
        startFace       493759;
    }
    maxY
    {
        type            patch;
        nFaces          400;
        startFace       494159;
    }
    minZ
    {
        type            patch;
        nFaces          400;
        startFace       494559;
    }
    maxZ
    {
        type            patch;
        nFaces          400;
        startFace       494959;
    }
    wolf_wall
    {
        type            wall;
        nFaces          20078;
        startFace       495359;
    }
)

// ************************************************************************* //
